LTspice 24.1.10 for Windows
Circuit: C:\Users\kotas\OneDrive\Documents\LTspice\Draft2.net
Start Time: Mon Oct 13 18:14:08 2025
solver = Normal
Maximum thread count: 8
tnom = 27
temp = 27
method = trap
WARNING: Node n008 is floating.

Direct Newton iteration for .op point succeeded.
Total elapsed time: 0.118 seconds.

Files loaded:
C:\Users\kotas\OneDrive\Documents\LTspice\Draft2.net
C:\Users\kotas\OneDrive\Documents\LTspice\lib\sub\LM386.txt

