LTspice 24.1.10 for Windows
Circuit: C:\Users\kotas\OneDrive\Documents\LTspice\LM386.lib
Start Time: Mon Oct 13 16:52:14 2025
No analysis specified.