LTspice 24.1.10 for Windows
Circuit: C:\Users\kotas\OneDrive\Documents\LTspice\OpAmp SCM.net
Start Time: Mon Oct 27 16:47:57 2025
solver = Normal
Maximum thread count: 8
tnom = 27
temp = 27
method = trap
WARNING: Node n012 is floating.

Direct Newton iteration for .op point succeeded.
Total elapsed time: 0.136 seconds.

Files loaded:
C:\Users\kotas\OneDrive\Documents\LTspice\OpAmp SCM.net
C:\Users\kotas\OneDrive\Documents\LTspice\lib\sub\LM386.txt

